134

Yb        0.00000        0.00000        0.00000
Fe        2.47625        3.84784       -1.03910
Cl        0.36569       -1.98598        1.61367
O        -2.09282        0.11336       -0.34015
O         0.94614       -0.93973       -1.66458
S        -0.37952        2.39476       -1.69066
S         2.79151        0.80446        0.31452
C         0.47010        3.79426       -1.03219
C         0.96592        3.94523        0.31345
C         1.73142        5.14861        0.36502
C         1.71265        5.74965       -0.93563
C         0.93464        4.92200       -1.80308
C         3.38484        2.06611       -0.76858
C         3.04427        2.25535       -2.15632
C         3.71971        3.42551       -2.61281
C         4.46673        3.97250       -1.52040
C         4.26971        3.13520       -0.37964
C        -2.16104        2.75471       -1.24090
C        -3.08177        1.70348       -1.77998
C        -3.03309        0.39346       -1.23137
C        -3.99182       -0.57712       -1.65483
C        -4.88309       -0.20150       -2.65875
C        -4.90174        1.06907       -3.26457
C        -3.98851        2.01514       -2.79486
C        -5.90822        1.35930       -4.38401
C        -5.78577        2.79668       -4.92031
C        -7.34800        1.16012       -3.85302
C        -5.66131        0.38058       -5.55729
C        -4.02967       -1.98113       -1.03106
C        -5.22783       -2.80576       -1.54146
C        -4.15804       -1.88326        0.50905
C        -2.74402       -2.75631       -1.39998
C         3.45957       -0.77981       -0.44106
C         3.29256       -0.85865       -1.92185
C         1.98335       -0.96909       -2.47913
C         1.84165       -1.07165       -3.89642
C         2.99920       -0.95621       -4.67495
C         4.28501       -0.77234       -4.14517
C         4.40364       -0.74518       -2.74966
C         5.52929       -0.58337       -5.01997
C         6.12867        0.81665       -4.74055
C         6.58119       -1.66309       -4.67250
C         5.21220       -0.68332       -6.52249
C         0.47462       -1.35712       -4.53896
C        -0.56215       -0.26156       -4.19686
C        -0.03092       -2.72479       -4.01856
C         0.56284       -1.44213       -6.07518
H        -2.19242        2.79606       -0.15109
H        -2.39059        3.73656       -1.65749
H        -5.98133        3.53728       -4.13695
H        -6.51919        2.95111       -5.71902
H        -4.79033        2.98756       -5.33595
H        -7.55172        1.84711       -3.02463
H        -7.50428        0.13800       -3.49420
H        -8.07484        1.35406       -4.65052
H        -6.37806        0.57042       -6.36484
H        -5.77614       -0.66040       -5.23926
H        -4.64861        0.50530       -5.95544
H        -6.18235       -2.31698       -1.31619
H        -5.22337       -3.78203       -1.04511
H        -5.17434       -2.98228       -2.62137
H        -5.07037       -1.34119        0.78315
H        -3.29926       -1.37098        0.94480
H        -4.21726       -2.89113        0.93619
H        -1.85057       -2.25350       -1.02692
H        -2.65645       -2.85341       -2.48585
H        -2.77451       -3.76088       -0.96232
H         2.86738       -1.53156        0.09140
H         4.50750       -0.85541       -0.14806
H         6.40097        0.92966       -3.68644
H         5.40504        1.60071       -4.98720
H         7.02942        0.97019       -5.34642
H         6.87801       -1.60953       -3.62050
H         7.47984       -1.52489       -5.28496
H         6.18279       -2.66526       -4.86358
H         4.79890       -1.66405       -6.78248
H         6.13293       -0.54245       -7.09869
H         4.49925        0.08677       -6.83654
H        -0.77318       -0.23247       -3.12890
H        -1.50314       -0.46576       -4.72094
H        -0.20311        0.72571       -4.50499
H        -0.12087       -2.71626       -2.93085
H         0.66043       -3.52333       -4.30996
H        -1.01478       -2.94759       -4.44789
H         1.24356       -2.23527       -6.40350
H         0.89317       -0.49531       -6.51754
H        -0.43153       -1.66904       -6.47451
H         2.89386       -1.01014       -5.75061
H         5.37871       -0.61287       -2.28664
H        -3.97393        3.02115       -3.20350
H        -5.60663       -0.93312       -3.00134
H         0.74706        5.08132       -2.85581
H         3.64534        3.84725       -3.60579
H         2.38297        1.62719       -2.73513
H         4.68315        3.27830        0.60902
H         0.80481        3.23665        1.11312
H         2.26239        5.52430        1.22926
H         5.05529        4.87962       -1.54610
H         2.22721        6.65725       -1.22108
XX        0.00000        2.50000        0.00000
XX       -0.36867        2.44949        0.33773
XX        0.92385        2.24747       -0.58768
XX       -0.30972        2.19697        1.15213
XX        1.64932        1.84343       -0.36260
XX       -1.00201        1.79293        1.42526
XX        1.40733        1.69192        1.18610
XX        1.36696        1.59091       -1.36031
XX       -0.09095        1.54040        1.96695
XX       -1.70632        1.38889        1.18721
XX        1.06533        1.28788        1.85915
XX        1.99742        1.18687       -0.92286
XX       -0.85968        1.13636        2.05417
XX        1.25411        0.93434       -1.95044
XX        0.39610        0.88384        2.30476
XX       -1.62323        0.73232        1.75466
XX        1.62527        0.63131        1.79163
XX        1.94608        0.53030       -1.47701
XX       -0.43914        0.47980        2.41391
XX        0.93870        0.22727        2.30590
XX       -1.26348        0.07576        2.15590
XX        2.03801       -0.02525        1.44771
XX        0.09088       -0.17677        2.49209
XX       -1.74752       -0.22727       -1.77328
XX       -1.91056       -0.32828        1.57860
XX        1.39674       -0.42929        2.02850
XX       -0.75034       -0.58081        2.31293
XX       -1.41582       -0.98485        1.80984
XX        1.64554       -1.08586        1.53724
XX       -1.76471       -1.38889        1.09853
XX       -0.53367       -1.69192       -1.76142
XX       -1.02871       -2.04545        1.00392
XX        0.90484       -2.24747       -0.61655
XX       -0.45590       -2.44949        0.20526
XX        0.00000       -2.50000       -0.00000
